Version 4
SHEET 1 1068 680
WIRE 688 -16 112 -16
WIRE 112 16 112 -16
WIRE 688 80 688 -16
WIRE 416 96 112 96
WIRE 480 96 416 96
WIRE 416 144 416 96
WIRE -176 192 -240 192
WIRE -32 192 -96 192
WIRE 64 192 64 176
WIRE 64 192 -32 192
WIRE 112 272 112 192
WIRE 112 272 -240 272
WIRE 416 272 416 208
WIRE 416 272 112 272
WIRE 688 272 688 160
WIRE 688 272 416 272
WIRE 112 288 112 272
WIRE 288 480 288 160
WIRE 320 480 288 480
FLAG 112 288 0
FLAG 480 96 Vo
IOPIN 480 96 Out
FLAG -32 192 Vi
IOPIN -32 192 In
FLAG 288 112 Tj
IOPIN 288 112 Out
SYMBOL voltage -240 176 R0
WINDOW 3 -142 115 Left 2
WINDOW 123 24 124 Left 2
WINDOW 39 33 81 Left 2
SYMATTR Value PULSE(0 20 0.001 1e-7 1e-7 0.005 0 1)
SYMATTR SpiceLine Rser=0.1`
SYMATTR InstName V1
SYMBOL voltage 688 64 R0
WINDOW 123 0 0 Left 0
WINDOW 39 24 124 Left 2
SYMATTR SpiceLine Rser=.12
SYMATTR InstName V2
SYMATTR Value 50
SYMBOL ind 96 0 R0
SYMATTR InstName L1
SYMATTR Value 40e-6
SYMATTR SpiceLine Rser=.08 Cpar=1e-9
SYMBOL res -80 176 R90
WINDOW 0 0 56 VBottom 2
WINDOW 3 32 56 VTop 2
SYMATTR InstName R1
SYMATTR Value 4
SYMBOL zener 432 208 R180
WINDOW 0 24 64 Left 2
WINDOW 3 24 0 Left 2
SYMATTR InstName D1
SYMATTR Value 1N5371B
SYMATTR Description Diode
SYMATTR Type diode
SYMBOL thermal-nmos 64 96 R0
SYMATTR InstName M2
SYMATTR Value IPB180N10S4_02
SYMATTR Prefix X
SYMBOL SOAtherm-PCB 320 480 R0
SYMATTR InstName U1
SYMATTR Value2 Tambient=50 LFM=0 PCB_FR4_Thickness_mm=1.5
TEXT -592 -240 Left 2 !.lib C:\\Users\\ekultho\\Documents\\LTspiceXVII\\mylib\\NMOS\\OptiMOS-T2_100V.lib
TEXT -592 32 Left 2 !.tran 0 0.01 0 0.00001
