Version 4
SHEET 1 1144 680
WIRE -144 -64 -272 -64
WIRE 32 -64 -144 -64
WIRE 160 -64 32 -64
WIRE 224 -64 160 -64
WIRE 544 -64 224 -64
WIRE 720 -64 544 -64
WIRE 880 -64 720 -64
WIRE 944 -64 880 -64
WIRE -144 0 -144 -64
WIRE 32 0 32 -64
WIRE 224 0 224 -64
WIRE 544 0 544 -64
WIRE 720 0 720 -64
WIRE 944 0 944 -64
WIRE -272 112 -272 -64
WIRE 160 112 160 -64
WIRE 880 112 880 -64
WIRE 32 128 32 80
WIRE 96 128 32 128
WIRE 128 128 96 128
WIRE 720 128 720 80
WIRE 800 128 720 128
WIRE 848 128 800 128
WIRE 224 144 224 80
WIRE 224 144 192 144
WIRE 288 144 224 144
WIRE 352 144 288 144
WIRE 944 144 944 80
WIRE 944 144 912 144
WIRE 992 144 944 144
WIRE 1040 144 992 144
WIRE -144 160 -144 80
WIRE -16 160 -144 160
WIRE 128 160 -16 160
WIRE 544 160 544 80
WIRE 640 160 544 160
WIRE 848 160 640 160
WIRE 224 208 224 144
WIRE -144 240 -144 160
WIRE -144 240 -208 240
WIRE 32 240 32 128
WIRE 544 240 544 160
WIRE 720 240 720 128
WIRE 1040 256 1040 208
WIRE -272 320 -272 192
WIRE -208 320 -272 320
WIRE -144 320 -208 320
WIRE 32 320 -144 320
WIRE 160 320 160 176
WIRE 160 320 32 320
WIRE 224 320 224 288
WIRE 224 320 160 320
WIRE 544 320 224 320
WIRE 720 320 544 320
WIRE 880 320 880 176
WIRE 880 320 720 320
FLAG -16 160 Vrx1
FLAG 160 320 0
FLAG 96 128 Vref1
FLAG 288 144 Trig1
FLAG 992 144 Trig2
FLAG 640 160 Vrx2
FLAG 800 128 Vref2
FLAG 1040 256 Vref1
SYMBOL voltage -272 96 R0
WINDOW 123 0 0 Left 0
WINDOW 39 0 0 Left 0
SYMATTR InstName V1
SYMATTR Value 12
SYMBOL current -144 240 R0
WINDOW 3 -190 114 Left 2
WINDOW 123 0 0 Left 0
WINDOW 39 0 0 Left 0
SYMATTR Value PULSE(6e-3 100e-9 1e-3 1e-5 1e-5 3e-3 0.1 2)
SYMATTR InstName I1
SYMBOL res -160 -16 R0
SYMATTR InstName R1
SYMATTR Value 2k
SYMBOL res 16 -16 R0
SYMATTR InstName R2
SYMATTR Value 10k
SYMBOL res 16 224 R0
SYMATTR InstName R3
SYMATTR Value 6.8k
SYMBOL res 208 -16 R0
SYMATTR InstName R4
SYMATTR Value 10k
SYMBOL Opamps\\opamp2 160 80 R0
SYMATTR InstName U2
SYMATTR Value LM393
SYMBOL Opamps\\opamp2 880 80 R0
SYMATTR InstName U1
SYMATTR Value LM393
SYMBOL res 528 -16 R0
SYMATTR InstName R5
SYMATTR Value 4k
SYMBOL res 704 -16 R0
SYMATTR InstName R6
SYMATTR Value 10k
SYMBOL current 544 240 R0
WINDOW 3 -190 114 Left 2
WINDOW 123 0 0 Left 0
WINDOW 39 0 0 Left 0
SYMATTR Value PULSE(2e-3 100e-9 2.3e-3 1e-5 1e-5 3e-3 0.1 2)
SYMATTR InstName I2
SYMBOL res 704 224 R0
SYMATTR InstName R7
SYMATTR Value 6.8k
SYMBOL res 928 -16 R0
SYMATTR InstName R8
SYMATTR Value 1k
SYMBOL res -224 224 R0
SYMATTR InstName R9
SYMATTR Value 2.2k
SYMBOL diode 1024 144 R0
SYMATTR InstName D1
SYMATTR Value 1N4148
SYMBOL res 208 192 R0
SYMATTR InstName R10
SYMATTR Value 5k
TEXT -248 -184 Left 2 !.lib mylib\\OPAMP\\LM311.lib
TEXT -248 -152 Left 2 !.tran 20e-3
TEXT -248 -208 Left 2 !.lib mylib\\OPAMP\\LM393.lib
TEXT -112 280 Left 1 ;phototransistor
TEXT 576 280 Left 1 ;phototransistor
