Version 4
SHEET 1 1228 680
WIRE -208 -16 -224 -16
WIRE 800 -16 112 -16
WIRE -224 0 -224 -16
WIRE 112 0 112 -16
WIRE -128 80 -128 -16
WIRE 800 80 800 -16
WIRE 112 96 112 80
WIRE 592 96 112 96
WIRE 672 96 592 96
WIRE 320 112 288 112
WIRE 592 112 592 96
WIRE 384 160 288 160
WIRE -352 176 -496 176
WIRE -192 176 -192 128
WIRE -192 176 -272 176
WIRE 16 176 -128 176
WIRE 64 176 16 176
WIRE -496 192 -496 176
WIRE 592 192 592 176
WIRE -192 224 -192 176
WIRE -128 272 -496 272
WIRE 112 272 112 192
WIRE 592 272 592 256
WIRE 592 272 112 272
WIRE 800 272 800 160
WIRE 800 272 592 272
WIRE -128 288 -128 272
WIRE 112 288 112 272
WIRE 384 464 384 160
FLAG 112 288 0
FLAG 672 96 Vo
IOPIN 672 96 Out
FLAG -224 0 0
FLAG -128 288 0
FLAG 16 176 Vg
IOPIN 16 176 In
FLAG 320 112 Tj
IOPIN 320 112 Out
SYMBOL voltage -496 176 R0
WINDOW 3 -328 132 Left 2
WINDOW 123 24 124 Left 2
WINDOW 39 33 81 Left 2
SYMATTR Value PULSE(0 20 0.001 40e-9 40e-9 0.005 0 1)
SYMATTR SpiceLine Rser=0.1`
SYMATTR InstName V1
SYMBOL voltage 800 64 R0
WINDOW 123 0 0 Left 0
WINDOW 39 24 124 Left 2
SYMATTR SpiceLine Rser=.12
SYMATTR InstName V2
SYMATTR Value 50
SYMBOL ind 96 -16 R0
SYMATTR InstName L1
SYMATTR Value 40e-6
SYMATTR SpiceLine Rser=.08 Cpar=1e-9
SYMBOL zener 608 176 R180
WINDOW 0 24 64 Left 2
WINDOW 3 47 30 Left 2
SYMATTR InstName D1
SYMATTR Value SMDJ24A
SYMATTR Prefix X
SYMBOL zener 608 256 R180
WINDOW 0 24 64 Left 2
WINDOW 3 44 28 Left 2
SYMATTR InstName D2
SYMATTR Value SMDJ24A
SYMATTR Prefix X
SYMBOL thermal-nmos 64 96 R0
WINDOW 3 53 110 Left 2
SYMATTR InstName M1
SYMATTR Value IPB180N10S4_02
SYMATTR Prefix X
SYMBOL SOAtherm-PCB 384 464 R0
SYMATTR InstName U1
SYMATTR Value Area_Contact_mm2=100 Area_PCB_mm2=10000 Copper_Thickness_oz=1
SYMATTR Value2 Tambient=85 LFM=0 PCB_FR4_Thickness_mm=1.5
SYMBOL npn -192 80 R0
SYMATTR InstName Q2
SYMBOL pnp -192 272 M180
SYMATTR InstName Q1
SYMBOL voltage -112 -16 R90
WINDOW 0 -32 56 VBottom 2
WINDOW 3 32 56 VTop 2
WINDOW 123 0 0 Left 0
WINDOW 39 -64 60 VBottom 2
SYMATTR InstName V3
SYMATTR Value 20
SYMATTR SpiceLine Rser=0.01
SYMBOL res -256 160 R90
WINDOW 0 0 56 VBottom 2
WINDOW 3 32 56 VTop 2
SYMATTR InstName R1
SYMATTR Value 1K
SYMATTR SpiceLine tol=1 pwr=0.1
TEXT 88 -400 Left 2 !.lib mylib\\NMOS\\OptiMOS-T2_100V.lib
TEXT 88 -368 Left 2 !.tran 0 0.01 0 0.00001
TEXT 88 -432 Left 2 !.lib mylib\\TVS\\SMDJXXXA.lib
