Version 4
SHEET 1 916 680
WIRE 400 -16 112 -16
WIRE 688 -16 400 -16
WIRE -192 0 -320 0
WIRE -48 0 -112 0
WIRE -32 0 -48 0
WIRE 400 0 400 -16
WIRE -320 16 -320 0
WIRE -32 64 -32 0
WIRE 64 64 -32 64
WIRE 688 80 688 -16
WIRE 112 96 112 80
WIRE 112 96 -320 96
WIRE 400 96 400 80
WIRE 400 96 112 96
WIRE 480 96 400 96
WIRE -176 192 -240 192
WIRE -32 192 -96 192
WIRE 64 192 64 176
WIRE 64 192 -32 192
WIRE 112 272 112 192
WIRE 112 272 -240 272
WIRE 688 272 688 160
WIRE 688 272 112 272
WIRE 112 288 112 272
FLAG 112 288 0
FLAG 480 96 Vo
IOPIN 480 96 Out
FLAG -32 192 Vi
IOPIN -32 192 In
FLAG -48 0 Vi_INV
IOPIN -48 0 In
SYMBOL nmos 64 96 R0
SYMATTR InstName M1
SYMATTR Value IPB180N10S4_02_L0
SYMATTR Prefix X
SYMBOL voltage -240 176 R0
WINDOW 3 -142 115 Left 2
WINDOW 123 24 124 Left 2
WINDOW 39 33 81 Left 2
SYMATTR Value PULSE(0 20 0.001 1e-7 1e-7 0.005 0 1)
SYMATTR SpiceLine Rser=0.1
SYMATTR InstName V1
SYMBOL voltage 688 64 R0
WINDOW 123 0 0 Left 0
WINDOW 39 24 124 Left 2
SYMATTR SpiceLine Rser=.12
SYMATTR InstName V2
SYMATTR Value 50
SYMBOL ind 384 -16 R0
WINDOW 0 46 28 Left 2
SYMATTR InstName L1
SYMATTR Value 40e-6
SYMATTR SpiceLine Rser=.2 Cpar=1e-9
SYMBOL res -80 176 R90
WINDOW 0 0 56 VBottom 2
WINDOW 3 32 56 VTop 2
SYMATTR InstName R1
SYMATTR Value 4
SYMBOL nmos 64 -16 R0
SYMATTR InstName M2
SYMATTR Value IPB180N10S4_02_L0
SYMATTR Prefix X
SYMBOL voltage -320 0 R0
WINDOW 3 -142 115 Left 2
WINDOW 123 24 124 Left 2
WINDOW 39 33 81 Left 2
SYMATTR Value PULSE(20 0 0.001 1e-5 1e-7 0.005 0 1)
SYMATTR SpiceLine Rser=0.1
SYMATTR InstName V3
SYMBOL res -96 -16 R90
WINDOW 0 0 56 VBottom 2
WINDOW 3 32 56 VTop 2
SYMATTR InstName R2
SYMATTR Value 4
TEXT -120 424 Left 2 !.lib C:\\Users\\ekultho\\Documents\\LTspiceXVII\\mylib\\NMOS\\OptiMOS-T2_100V.lib
TEXT -272 448 Left 2 !.tran 0 0.01 0 0.00001
