Version 4
SHEET 1 1228 680
WIRE 800 -16 112 -16
WIRE 112 0 112 -16
WIRE 800 80 800 -16
WIRE 112 96 112 80
WIRE 672 96 112 96
WIRE 320 112 288 112
WIRE 384 160 288 160
WIRE 64 176 -16 176
WIRE -16 192 -16 176
WIRE 112 272 112 192
WIRE 112 272 -16 272
WIRE 800 272 800 160
WIRE 800 272 112 272
WIRE 112 288 112 272
WIRE 384 352 384 160
WIRE 384 464 384 352
FLAG 112 288 0
FLAG 672 96 Vo
IOPIN 672 96 Out
FLAG 320 112 Tj
IOPIN 320 112 Out
FLAG 384 352 Tcase
IOPIN 384 352 Out
SYMBOL voltage 800 64 R0
WINDOW 123 0 0 Left 0
WINDOW 39 24 124 Left 2
SYMATTR SpiceLine Rser=.12
SYMATTR InstName V2
SYMATTR Value 50
SYMBOL ind 96 -16 R0
SYMATTR InstName L1
SYMATTR Value {L_COIL}
SYMATTR SpiceLine Rser={R_COIL} Cpar=1e-9
SYMBOL thermal-nmos -176 -208 R0
WINDOW 3 53 110 Left 2
SYMATTR Value STP310N10F7_V3
SYMATTR InstName M1
SYMATTR Prefix X
SYMBOL SOAtherm-PCB 384 464 R0
SYMATTR InstName U1
SYMATTR Value Area_Contact_mm2=100 Area_PCB_mm2=10000 Copper_Thickness_oz=1
SYMATTR Value2 Tambient=25 LFM=0 PCB_FR4_Thickness_mm=1.5
SYMBOL thermal-nmos 64 96 R0
WINDOW 3 53 110 Left 2
SYMATTR Value IPB180N10S4_02
SYMATTR InstName M2
SYMATTR Prefix X
SYMBOL voltage -16 176 R0
WINDOW 123 0 0 Left 0
WINDOW 39 0 0 Left 0
SYMATTR InstName V1
SYMATTR Value 20
TEXT 120 -152 Left 2 !.lib OptiMOS-T2_100V.lib
TEXT 120 -120 Left 2 !.tran 0 0.006 0 0.00001
TEXT 120 -184 Left 2 !.lib STP310N10F7_V3.lib
TEXT -48 376 Left 2 !.ic I(L1) = I_COIL
TEXT -48 408 Left 2 !.param I_COIL=0
TEXT -48 440 Left 2 !.param L_COIL=40e-6
TEXT -48 472 Left 2 !.param R_COIL=0.08
